52
RuPNP_tBu_OH
Ru        -1.24900       -1.86270        0.41180
H         -2.67160       -1.10340       -0.11020
N         -1.50290       -0.90480        2.37540
C         -2.11790       -1.57020        3.38060
C         -0.90340        0.28150        2.63250
C         -2.05470       -1.11440        4.70020
C         -0.81060        0.78320        3.93330
C         -1.37570        0.06740        4.98570
H         -2.54360       -1.68740        5.48980
H         -0.30130        1.73240        4.10720
H         -1.30310        0.43440        6.01200
P         -2.39100       -3.55650        1.42310
C         -4.02610       -4.35820        0.89020
C         -1.07790       -4.91390        1.73640
P          0.00000        0.00000        0.00000
O          1.01060        1.24400       -0.54610
O         -0.86570        0.19000       -1.44300
C         -2.94320       -2.78120        3.02930
H         -3.97680       -2.43610        2.85010
H         -2.98180       -3.49570        3.86430
C         -0.40150        1.08720        1.46270
H         -1.23170        1.73270        1.12520
H          0.42620        1.74880        1.75590
C         -1.02390       -2.67380       -1.23220
O         -0.88700       -3.18150       -2.26480
H          0.14390       -2.54720        1.07130
C         -4.76030       -5.18320        1.97500
C         -4.98890       -3.21580        0.45610
C         -3.81980       -5.20220       -0.38730
H         -4.96900       -4.57340        2.87930
H         -5.74450       -5.52320        1.58410
H         -4.24570       -6.09700        2.28640
H         -4.52910       -2.60030       -0.34650
H         -5.93680       -3.63270        0.05030
H         -5.29330       -2.53590        1.26790
H         -3.35770       -4.58810       -1.19030
H         -3.18720       -6.08810       -0.23930
H         -4.79570       -5.57860       -0.76650
C         -0.10640       -4.48190        2.87780
C         -1.69260       -6.22390        2.27700
C         -0.28810       -5.26780        0.46080
H         -0.67170       -4.32600        3.82100
H          0.64060       -5.28260        3.07210
H          0.48350       -3.56990        2.73380
H         -2.33030       -6.73860        1.54520
H         -0.89620       -6.96590        2.50810
H         -2.25000       -6.04390        3.21950
H         -0.96110       -5.59910       -0.35360
H          0.32220       -4.42800        0.08840
H          0.43120       -6.09180        0.66590
H         -1.62620        0.78040       -1.21050
H          1.92840        0.90650       -0.38880
