58
RuPNP_tBu_OMe
Ru        -1.24900       -1.86270        0.41180
H         -2.67160       -1.10340       -0.11020
N         -1.50290       -0.90480        2.37540
C         -2.11790       -1.57020        3.38060
C         -0.90340        0.28150        2.63250
C         -2.05470       -1.11440        4.70020
C         -0.81060        0.78320        3.93330
C         -1.37570        0.06740        4.98570
H         -2.54360       -1.68740        5.48980
H         -0.30130        1.73240        4.10720
H         -1.30310        0.43440        6.01200
P         -2.39100       -3.55650        1.42310
C         -3.99330       -4.44010        0.92740
C         -1.04210       -4.87110        1.79810
P          0.00000        0.00000        0.00000
O          1.03500        1.23850       -0.55440
O         -0.77870        0.09660       -1.52230
C         -2.94320       -2.78120        3.02930
H         -3.97680       -2.43610        2.85010
H         -2.98180       -3.49570        3.86430
C         -0.40150        1.08720        1.46270
H         -1.23170        1.73270        1.12520
H          0.42620        1.74880        1.75590
C         -1.02390       -2.67380       -1.23220
O         -0.88700       -3.18150       -2.26480
H          0.14390       -2.54720        1.07130
C         -4.70920       -5.24770        2.03950
C         -4.99050       -3.34610        0.45610
C         -3.75540       -5.32470       -0.31720
H         -4.94560       -4.60960        2.91400
H         -5.67660       -5.63670        1.65360
H         -4.17450       -6.13430        2.39480
H         -4.54800       -2.73660       -0.36070
H         -5.92390       -3.80520        0.06140
H         -5.30980       -2.65630        1.25700
H         -3.30210       -4.73000       -1.13950
H         -3.10210       -6.18540       -0.12840
H         -4.71570       -5.74390       -0.68860
C         -0.06120       -4.38540        2.91540
C         -1.63010       -6.16520        2.40660
C         -0.25470       -5.27540        0.53210
H         -0.62030       -4.18300        3.85330
H          0.68250       -5.18030        3.14510
H          0.54950       -3.49410        2.74150
H         -2.25270       -6.72970        1.70110
H         -0.82100       -6.87910        2.67770
H         -2.19110       -5.94330        3.34020
H         -0.92530       -5.66390       -0.25710
H          0.32680       -4.44170        0.10720
H          0.48330       -6.07150        0.77110
C         -1.73120        1.13140       -1.50890
H         -2.33070        1.05610       -2.43980
H         -2.45450        1.03810       -0.67290
H         -1.23700        2.12600       -1.51190
C          2.35290        0.74190       -0.63730
H          2.46400       -0.35990       -0.50360
H          2.74860        0.97170       -1.64800
H          2.98230        1.25180        0.12070
