74
RuPNP_tBu_tBu
Ru        -1.24900       -1.86270        0.41180
H         -2.67160       -1.10340       -0.11020
N         -1.50290       -0.90480        2.37540
C         -2.11790       -1.57020        3.38060
C         -0.90340        0.28150        2.63250
C         -2.05470       -1.11440        4.70020
C         -0.81060        0.78320        3.93330
C         -1.37570        0.06740        4.98570
H         -2.54360       -1.68740        5.48980
H         -0.30130        1.73240        4.10720
H         -1.30310        0.43440        6.01200
P         -2.39100       -3.55650        1.42310
C         -3.99090       -4.44390        0.92810
C         -1.03780       -4.86780        1.79940
P          0.00000        0.00000        0.00000
C          1.89200        0.05110        0.16860
C         -0.52390        0.73590       -1.68200
C         -2.94320       -2.78120        3.02930
H         -3.97680       -2.43610        2.85010
H         -2.98180       -3.49570        3.86430
C         -0.40150        1.08720        1.46270
H         -1.23170        1.73270        1.12520
H          0.42620        1.74880        1.75590
C         -1.02390       -2.67380       -1.23220
O         -0.88700       -3.18150       -2.26480
H          0.14390       -2.54720        1.07130
C         -4.70520       -5.25190        2.04140
C         -4.98980       -3.35260        0.45680
C         -3.74970       -5.32960       -0.31530
H         -4.94330       -4.61350        2.91540
H         -5.67170       -5.64340        1.65580
H         -4.16930       -6.13730        2.39790
H         -4.54790       -2.74380       -0.36140
H         -5.92250       -3.81330        0.06390
H         -5.30890       -2.66240        1.25720
H         -3.29860       -4.73270       -1.13720
H         -3.09440       -6.18960       -0.12520
H         -4.70900       -5.75150       -0.68620
C         -0.05900       -4.37840        2.91750
C         -1.62430       -6.16140        2.40910
C         -0.24990       -5.27110        0.53450
H         -0.61870       -4.17640        3.85500
H          0.68620       -5.17160        3.14760
H          0.55070       -3.48620        2.74430
H         -2.24620       -6.72890        1.70510
H         -0.81420       -6.87360        2.68200
H         -2.18550       -5.94020        3.34190
H         -0.91950       -5.66160       -0.25460
H          0.33070       -4.43740        0.10810
H          0.48940       -6.06570        0.77450
C          0.23470        0.15470       -2.88720
C         -2.02960        0.51790       -1.92940
C         -0.33950        2.27670       -1.68210
H          0.16540       -0.94710       -2.92540
H         -0.18160        0.55470       -3.83760
H          1.29100        0.47260       -2.88370
H         -2.63450        0.92850       -1.09220
H         -2.35800        1.03430       -2.85840
H         -2.26300       -0.54820       -2.10000
H         -0.93670        2.75120       -0.87720
H          0.69500        2.61300       -1.56160
H         -0.68790        2.71180       -2.64450
C          2.29930       -0.30630        1.62610
C          2.50890       -1.07290       -0.69920
C          2.55460        1.39030       -0.20010
H          1.86830       -1.28040        1.93480
H          3.40500       -0.38700        1.71530
H          2.00030        0.45120        2.37230
H          2.35130       -0.94840       -1.77650
H          3.61060       -1.12030       -0.55530
H          2.08580       -2.06050       -0.41610
H          2.48610        1.58480       -1.28380
H          2.13150        2.23670        0.37630
H          3.64490        1.35060        0.01410
