66
RuPNP_tBu_NEt
Ru        -1.24900       -1.86270        0.41180
H         -2.67160       -1.10340       -0.11020
N         -1.50290       -0.90480        2.37540
C         -2.11790       -1.57020        3.38060
C         -0.90340        0.28150        2.63250
C         -2.05470       -1.11440        4.70020
C         -0.81060        0.78320        3.93330
C         -1.37570        0.06740        4.98570
H         -2.54360       -1.68740        5.48980
H         -0.30130        1.73240        4.10720
H         -1.30310        0.43440        6.01200
P         -2.39100       -3.55650        1.42310
C         -3.99160       -4.44300        0.92850
C         -1.04050       -4.87040        1.79990
P          0.00000        0.00000        0.00000
N          1.14000        1.26320       -0.51130
N         -1.09500        0.36910       -1.35600
C         -2.94320       -2.78120        3.02930
H         -3.97680       -2.43610        2.85010
H         -2.98180       -3.49570        3.86430
C         -0.40150        1.08720        1.46270
H         -1.23170        1.73270        1.12520
H          0.42620        1.74880        1.75590
C         -1.02390       -2.67380       -1.23220
O         -0.88700       -3.18150       -2.26480
H          0.14390       -2.54720        1.07130
C         -4.70780       -5.24940        2.04160
C         -4.98940       -3.35090        0.45570
C         -3.75140       -5.32930       -0.31470
H         -4.94580       -4.60990        2.91480
H         -5.67450       -5.64000        1.65550
H         -4.17320       -6.13490        2.39910
H         -4.54690       -2.74340       -0.36340
H         -5.92280       -3.81080        0.06300
H         -5.30770       -2.65910        1.25530
H         -3.29930       -4.73360       -1.13720
H         -3.09740       -6.19010       -0.12430
H         -4.71120       -5.75040       -0.68590
C         -0.06070       -4.38220        2.91740
C         -1.62840       -6.16300        2.41030
C         -0.25330       -5.27510        0.53490
H         -0.61990       -4.17800        3.85480
H          0.68330       -5.17620        3.14840
H          0.55040       -3.49100        2.74240
H         -2.25130       -6.73030        1.70660
H         -0.81930       -6.87590        2.68370
H         -2.18930       -5.94030        3.34290
H         -0.92330       -5.66550       -0.25380
H          0.32750       -4.44150        0.10870
H          0.48540       -6.07020        0.77520
C         -0.58750        0.04420       -2.69730
C         -1.76700       -0.16600       -3.63930
H         -1.40480        1.36750       -1.32410
H          0.02650        0.87030       -3.11020
H          0.03980       -0.86590       -2.68880
H         -2.38340        0.75640       -3.69150
H         -1.39800       -0.40910       -4.65840
H         -2.40230       -1.00160       -3.27850
C          2.51910        0.76460       -0.47640
C          2.79830       -0.24250       -1.59690
H          0.94480        1.74020       -1.41530
H          3.20820        1.62640       -0.60510
H          2.73810        0.30330        0.51150
H          2.60440        0.22070       -2.58740
H          3.86110       -0.56020       -1.55460
H          2.16470       -1.14660       -1.48560
