56
RuPNP_tBu_CF3
Ru        -1.24900       -1.86270        0.41180
H         -2.67160       -1.10340       -0.11020
N         -1.50290       -0.90480        2.37540
C         -2.11790       -1.57020        3.38060
C         -0.90340        0.28150        2.63250
C         -2.05470       -1.11440        4.70020
C         -0.81060        0.78320        3.93330
C         -1.37570        0.06740        4.98570
H         -2.54360       -1.68740        5.48980
H         -0.30130        1.73240        4.10720
H         -1.30310        0.43440        6.01200
P         -2.39100       -3.55650        1.42310
C         -3.99830       -4.42640        0.91860
C         -1.04890       -4.88100        1.78470
P          0.00000        0.00000        0.00000
C          1.61980        0.83550       -0.29980
C         -0.66120        0.41250       -1.68570
C         -2.94320       -2.78120        3.02930
H         -3.97680       -2.43610        2.85010
H         -2.98180       -3.49570        3.86430
C         -0.40150        1.08720        1.46270
H         -1.23170        1.73270        1.12520
H          0.42620        1.74880        1.75590
C         -1.02390       -2.67380       -1.23220
O         -0.88700       -3.18150       -2.26480
H          0.14390       -2.54720        1.07130
C         -4.72010       -5.23750        2.02460
C         -4.98940       -3.32430        0.45370
C         -3.76310       -5.30310       -0.33300
H         -4.95290       -4.60480        2.90360
H         -5.68910       -5.61840        1.63500
H         -4.19070       -6.13000        2.37350
H         -4.54200       -2.71270       -0.35940
H         -5.92420       -3.77560        0.05540
H         -5.30660       -2.63750        1.25760
H         -3.30630       -4.70350       -1.14880
H         -3.11540       -6.17050       -0.14900
H         -4.72540       -5.71450       -0.70790
C         -0.06420       -4.40640        2.90330
C         -1.64450       -6.17440        2.38580
C         -0.26560       -5.27880        0.51580
H         -0.62080       -4.20380        3.84260
H          0.67480       -5.20660        3.12810
H          0.55130       -3.51880        2.72910
H         -2.27200       -6.73160        1.67780
H         -0.84000       -6.89530        2.65150
H         -2.20320       -5.95600        3.32050
H         -0.93870       -5.65660       -0.27680
H          0.32120       -4.44510        0.09960
H          0.46720       -6.08220        0.74770
F         -0.37550        1.71880       -2.03360
F         -0.09920       -0.42100       -2.63330
F         -2.03110        0.28250       -1.73170
F          2.44880        0.61030        0.78400
F          2.22710        0.29890       -1.41990
F          1.47820        2.20250       -0.46730
