56
RuPNP_tBu_Me
Ru        -1.24900       -1.86270        0.41180
H         -2.67160       -1.10340       -0.11020
N         -1.50290       -0.90480        2.37540
C         -2.11790       -1.57020        3.38060
C         -0.90340        0.28150        2.63250
C         -2.05470       -1.11440        4.70020
C         -0.81060        0.78320        3.93330
C         -1.37570        0.06740        4.98570
H         -2.54360       -1.68740        5.48980
H         -0.30130        1.73240        4.10720
H         -1.30310        0.43440        6.01200
P         -2.39100       -3.55650        1.42310
C         -4.00750       -4.39940        0.90300
C         -1.06040       -4.89630        1.76330
P          0.00000        0.00000        0.00000
C          1.47090        1.01310       -0.41430
C         -0.77110        0.37380       -1.62360
C         -2.94320       -2.78120        3.02930
H         -3.97680       -2.43610        2.85010
H         -2.98180       -3.49570        3.86430
C         -0.40150        1.08720        1.46270
H         -1.23170        1.73270        1.12520
H          0.42620        1.74880        1.75590
C         -1.02390       -2.67380       -1.23220
O         -0.88700       -3.18150       -2.26480
H          0.14390       -2.54720        1.07130
C         -4.73790       -5.21920        1.99520
C         -4.98770       -3.28140        0.45070
C         -3.77990       -5.26000       -0.36110
H         -4.96380       -4.59690        2.88370
H         -5.71010       -5.58420        1.60050
H         -4.21610       -6.12140        2.33060
H         -4.53370       -2.66260       -0.35310
H         -5.92590       -3.71820        0.04330
H         -5.30400       -2.60210        1.26100
H         -3.31690       -4.65190       -1.16830
H         -3.14010       -6.13560       -0.19050
H         -4.74570       -5.65530       -0.74420
C         -0.07290       -4.44280        2.88480
C         -1.66750       -6.19320        2.34430
C         -0.28040       -5.28160        0.48850
H         -0.62760       -4.24810        3.82710
H          0.66190       -5.25000        3.09810
H          0.54430       -3.55500        2.71470
H         -2.30110       -6.73320        1.62770
H         -0.86930       -6.92490        2.59890
H         -2.22520       -5.98420        3.28210
H         -0.95560       -5.63920       -0.31060
H          0.31660       -4.44560        0.08950
H          0.44520       -6.09510        0.70810
H         -0.35150       -0.29480       -2.40260
H         -1.86760        0.24670       -1.58450
H         -0.58770        1.42550       -1.92730
H          1.93560        0.63640       -1.34970
H          1.20260        2.08310       -0.54740
H          2.22270        0.92640        0.39800
