56
RuPNP_tBu_CHF2
Ru        -1.24900       -1.86270        0.41180
H         -2.67160       -1.10340       -0.11020
N         -1.50290       -0.90480        2.37540
C         -2.11790       -1.57020        3.38060
C         -0.90340        0.28150        2.63250
C         -2.05470       -1.11440        4.70020
C         -0.81060        0.78320        3.93330
C         -1.37570        0.06740        4.98570
H         -2.54360       -1.68740        5.48980
H         -0.30130        1.73240        4.10720
H         -1.30310        0.43440        6.01200
P         -2.39100       -3.55650        1.42310
C         -4.01190       -4.39260        0.90070
C         -1.06380       -4.90030        1.75680
P          0.00000        0.00000        0.00000
C          1.57150        0.90550       -0.32760
C         -0.66640        0.42090       -1.67230
C         -2.94320       -2.78120        3.02930
H         -3.97680       -2.43610        2.85010
H         -2.98180       -3.49570        3.86430
C         -0.40150        1.08720        1.46270
H         -1.23170        1.73270        1.12520
H          0.42620        1.74880        1.75590
C         -1.02390       -2.67380       -1.23220
O         -0.88700       -3.18150       -2.26480
H          0.14390       -2.54720        1.07130
C         -4.74120       -5.21520        1.99150
C         -4.98970       -3.27170        0.45330
C         -3.78700       -5.24970       -0.36640
H         -4.96380       -4.59560        2.88310
H         -5.71610       -5.57590        1.59700
H         -4.22070       -6.12000        2.32220
H         -4.53530       -2.65100       -0.34860
H         -5.92860       -3.70540        0.04510
H         -5.30550       -2.59410        1.26570
H         -3.32470       -4.64020       -1.17250
H         -3.14810       -6.12730       -0.19900
H         -4.75440       -5.64290       -0.74840
C         -0.07520       -4.45190        2.87960
C         -1.67240       -6.19880        2.33240
C         -0.28460       -5.28160        0.48090
H         -0.62950       -4.26090        3.82290
H          0.65950       -5.26040        3.08920
H          0.54130       -3.56320        2.71190
H         -2.30700       -6.73410        1.61360
H         -0.87480       -6.93300        2.58230
H         -2.22880       -5.99340        3.27140
H         -0.96150       -5.63360       -0.32050
H          0.31430       -4.44530        0.08570
H          0.43880       -6.09780        0.69570
F         -0.13380       -0.41840       -2.63160
F         -2.04160        0.34720       -1.70660
H         -0.40500        1.46110       -1.95050
F          2.21300        0.36580       -1.42720
F          1.35260        2.25670       -0.53940
H          2.24410        0.78780        0.54780
