54
RuPNP_tBu_COH
Ru        -1.24900       -1.86270        0.41180
H         -2.67160       -1.10340       -0.11020
N         -1.50290       -0.90480        2.37540
C         -2.11790       -1.57020        3.38060
C         -0.90340        0.28150        2.63250
C         -2.05470       -1.11440        4.70020
C         -0.81060        0.78320        3.93330
C         -1.37570        0.06740        4.98570
H         -2.54360       -1.68740        5.48980
H         -0.30130        1.73240        4.10720
H         -1.30310        0.43440        6.01200
P         -2.39100       -3.55650        1.42310
C         -4.10360       -4.28640        0.95690
C         -1.17500       -5.03960        1.84140
P          0.00000        0.00000        0.00000
C          1.69380        0.61280       -0.12690
C         -0.46970        0.48610       -1.67030
C         -2.94320       -2.78120        3.02930
H         -3.97680       -2.43610        2.85010
H         -2.98180       -3.49570        3.86430
C         -0.40150        1.08720        1.46270
H         -1.23170        1.73270        1.12520
H          0.42620        1.74880        1.75590
C         -1.02390       -2.67380       -1.23220
O         -0.88700       -3.18150       -2.26480
H          0.14390       -2.54720        1.07130
C         -4.93650       -4.92180        2.10670
C         -4.93920       -3.10230        0.39130
C         -4.02690       -5.27580       -0.23210
H         -5.21000       -4.19300        2.89150
H         -5.90040       -5.30090        1.70330
H         -4.45860       -5.76470        2.61590
H         -4.42490       -2.64850       -0.48300
H         -5.93860       -3.44700        0.04440
H         -5.13260       -2.29390        1.11920
H         -3.38580       -4.87800       -1.04790
H         -3.71960       -6.28400        0.05130
H         -5.03860       -5.46140       -0.65540
C         -0.79430       -4.96700        3.33960
C         -1.75500       -6.46380        1.64240
C          0.14290       -5.07760        1.02790
H         -1.67700       -5.15340        3.98540
H         -0.06310       -5.75650        3.61300
H         -0.34820       -3.98280        3.59130
H         -1.81770       -6.72240        0.57080
H         -1.06290       -7.23350        2.05020
H         -2.68870       -6.65150        2.18010
H         -0.06010       -5.04980       -0.06110
H          0.89460       -4.33680        1.33390
H          0.70020       -6.02160        1.23890
O          0.36840        0.61710       -2.54920
H         -1.50260        0.73060       -1.88220
O          2.62950       -0.17470        0.02110
H          1.89670        1.66290       -0.32120
