56
RuPNP_tBu_CCl3
Ru        -1.24900       -1.86270        0.41180
H         -2.67160       -1.10340       -0.11020
N         -1.50290       -0.90480        2.37540
C         -2.11790       -1.57020        3.38060
C         -0.90340        0.28150        2.63250
C         -2.05470       -1.11440        4.70020
C         -0.81060        0.78320        3.93330
C         -1.37570        0.06740        4.98570
H         -2.54360       -1.68740        5.48980
H         -0.30130        1.73240        4.10720
H         -1.30310        0.43440        6.01200
P         -2.39100       -3.55650        1.42310
C         -4.00050       -4.41830        0.91220
C         -1.05100       -4.88490        1.77770
P          0.00000        0.00000        0.00000
C          1.82660        0.40900       -0.00230
C         -0.52830        0.56130       -1.72060
C         -2.94320       -2.78120        3.02930
H         -3.97680       -2.43610        2.85010
H         -2.98180       -3.49570        3.86430
C         -0.40150        1.08720        1.46270
H         -1.23170        1.73270        1.12520
H          0.42620        1.74880        1.75590
C         -1.02390       -2.67380       -1.23220
O         -0.88700       -3.18150       -2.26480
H          0.14390       -2.54720        1.07130
C         -4.72480       -5.23280        2.01330
C         -4.98880       -3.31080        0.45140
C         -3.76680       -5.28930       -0.34270
H         -4.95560       -4.60400        2.89630
H         -5.69490       -5.60920        1.62230
H         -4.19680       -6.12840        2.35870
H         -4.53840       -2.69590       -0.35730
H         -5.92370       -3.75760        0.05010
H         -5.30590       -2.62720        1.25870
H         -3.30830       -4.68620       -1.15600
H         -3.12120       -6.15890       -0.16340
H         -4.73010       -5.69590       -0.72110
C         -0.06590       -4.41740        2.89720
C         -1.64980       -6.17940        2.37150
C         -0.26880       -5.27800        0.50680
H         -0.62160       -4.21730        3.83770
H          0.67260       -5.21930        3.11780
H          0.55000       -3.52880        2.72500
H         -2.27870       -6.73110        1.66020
H         -0.84690       -6.90360        2.63370
H         -2.20850       -5.96500        3.30700
H         -0.94250       -5.64890       -0.28830
H          0.32130       -4.44310        0.09610
H          0.46200       -6.08440        0.73430
Cl         0.10930       -0.45090       -3.03950
Cl        -2.29600        0.59890       -1.88310
Cl        -0.05030        2.23580       -2.07930
Cl         2.69310       -0.48920       -1.26970
Cl         2.26030        2.13930       -0.13200
Cl         2.51700       -0.17070        1.53680
