17
S1
C          0.80960       -0.08580        0.12490
O          0.54830       -0.35960        1.27520
C          0.11500        1.02060       -0.58440
C          0.42490        1.41080       -1.88670
C         -0.26140        2.45290       -2.48200
C         -1.26350        3.11720       -1.79250
C         -1.58010        2.73690       -0.49830
C         -0.89500        1.69790        0.10020
C          1.85420       -0.85340       -0.64930
H          1.20170        0.90820       -2.44180
H         -0.01430        2.74940       -3.49110
H         -1.79560        3.93010       -2.26430
H         -2.36000        3.25230        0.04240
H         -1.12650        1.38740        1.10840
H          2.25580       -1.64260       -0.01960
H          2.66210       -0.18910       -0.94860
H          1.41460       -1.29280       -1.54140
