68
RuPNP_tBu_iPr
Ru        -1.24900       -1.86270        0.41180
H         -2.67160       -1.10340       -0.11020
N         -1.50290       -0.90480        2.37540
C         -2.11790       -1.57020        3.38060
C         -0.90340        0.28150        2.63250
C         -2.05470       -1.11440        4.70020
C         -0.81060        0.78320        3.93330
C         -1.37570        0.06740        4.98570
H         -2.54360       -1.68740        5.48980
H         -0.30130        1.73240        4.10720
H         -1.30310        0.43440        6.01200
P         -2.39100       -3.55650        1.42310
C         -3.98890       -4.45200        0.93510
C         -1.03500       -4.86400        1.80630
P          0.00000        0.00000        0.00000
C          1.76460        0.61980       -0.10480
C         -0.57170        0.77010       -1.62800
C         -2.94320       -2.78120        3.02930
H         -3.97680       -2.43610        2.85010
H         -2.98180       -3.49570        3.86430
C         -0.40150        1.08720        1.46270
H         -1.23170        1.73270        1.12520
H          0.42620        1.74880        1.75590
C         -1.02390       -2.67380       -1.23220
O         -0.88700       -3.18150       -2.26480
H          0.14390       -2.54720        1.07130
C         -4.70000       -5.25690        2.05210
C         -4.99140       -3.36530        0.46000
C         -3.74620       -5.34160       -0.30500
H         -4.93930       -4.61540        2.92350
H         -5.66570       -5.65260        1.66900
H         -4.16190       -6.13930        2.41200
H         -4.55250       -2.75870       -0.36140
H         -5.92360       -3.83060        0.07040
H         -5.31090       -2.67270        1.25830
H         -3.29800       -4.74770       -1.13050
H         -3.08800       -6.19900       -0.11220
H         -4.70480       -5.76920       -0.67290
C         -0.05780       -4.36820        2.92400
C         -1.61820       -6.15660        2.42170
C         -0.24590       -5.27130        0.54380
H         -0.61850       -4.16490        3.86080
H          0.68910       -5.15860        3.15730
H          0.55000       -3.47480        2.74980
H         -2.23820       -6.72910        1.72010
H         -0.80640       -6.86520        2.69800
H         -2.17980       -5.93310        3.35350
H         -0.91450       -5.66790       -0.24300
H          0.33170       -4.43820        0.11250
H          0.49570       -6.06250        0.78800
C         -0.45500       -0.12680       -2.87110
C         -2.00500        1.32660       -1.58240
H          0.07400        1.65910       -1.78980
H         -1.27610       -0.86080       -2.90350
H         -0.58300        0.49280       -3.78460
H          0.50880       -0.65850       -2.95130
H         -2.13190        2.07840       -0.78290
H         -2.23130        1.85040       -2.53660
H         -2.75980        0.53080       -1.46470
C          2.55240        0.11020        1.12170
C          2.51520        0.13150       -1.35150
H          1.78380        1.73170       -0.12010
H          2.56980       -1.00130        1.13220
H          3.59990        0.47890        1.08730
H          2.12830        0.44710        2.08600
H          2.11260        0.59360       -2.27030
H          3.57710        0.45670       -1.30820
H          2.48670       -0.97700       -1.42430
