56
RuPNP_tBu_CH2F
Ru        -1.24900       -1.86270        0.41180
H         -2.67160       -1.10340       -0.11020
N         -1.50290       -0.90480        2.37540
C         -2.11790       -1.57020        3.38060
C         -0.90340        0.28150        2.63250
C         -2.05470       -1.11440        4.70020
C         -0.81060        0.78320        3.93330
C         -1.37570        0.06740        4.98570
H         -2.54360       -1.68740        5.48980
H         -0.30130        1.73240        4.10720
H         -1.30310        0.43440        6.01200
P         -2.39100       -3.55650        1.42310
C         -3.99910       -4.42440        0.91730
C         -1.05020       -4.88380        1.78090
P          0.00000        0.00000        0.00000
C          1.47970        1.01250       -0.40190
C         -0.80050        0.42550       -1.60150
C         -2.94320       -2.78120        3.02930
H         -3.97680       -2.43610        2.85010
H         -2.98180       -3.49570        3.86430
C         -0.40150        1.08720        1.46270
H         -1.23170        1.73270        1.12520
H          0.42620        1.74880        1.75590
C         -1.02390       -2.67380       -1.23220
O         -0.88700       -3.18150       -2.26480
H          0.14390       -2.54720        1.07130
C         -4.72070       -5.23800        2.02150
C         -4.99040       -3.32120        0.45570
C         -3.76550       -5.29860       -0.33510
H         -4.95210       -4.60630        2.90300
H         -5.69030       -5.61660        1.63250
H         -4.19170       -6.13100        2.36870
H         -4.54360       -2.70700       -0.35620
H         -5.92570       -3.77120        0.05630
H         -5.30850       -2.63640        1.26100
H         -3.30930       -4.69690       -1.15140
H         -3.11770       -6.16650       -0.15460
H         -4.72840       -5.70840       -0.71130
C         -0.06510       -4.41210        2.89960
C         -1.64610       -6.17810        2.37890
C         -0.26730       -5.27910        0.51070
H         -0.62010       -4.21110        3.83990
H          0.67410       -5.21360        3.12200
H          0.55170       -3.52470        2.72600
H         -2.27450       -6.73230        1.66950
H         -0.84220       -6.89990        2.64190
H         -2.20420       -5.96160        3.31460
H         -0.94140       -5.65350       -0.28260
H          0.32020       -4.44450        0.09720
H          0.46440       -6.08360        0.74020
F         -0.27990       -0.34440       -2.62400
H         -1.89460        0.28420       -1.55420
H         -0.63690        1.49430       -1.85160
F          2.08450        0.53990       -1.55180
H          1.21470        2.08280       -0.53980
H          2.21440        0.93100        0.42680
