78
RuPNP_tBu_NMeiPr
Ru        -1.24900       -1.86270        0.41180
H         -2.67160       -1.10340       -0.11020
N         -1.50290       -0.90480        2.37540
C         -2.11790       -1.57020        3.38060
C         -0.90340        0.28150        2.63250
C         -2.05470       -1.11440        4.70020
C         -0.81060        0.78320        3.93330
C         -1.37570        0.06740        4.98570
H         -2.54360       -1.68740        5.48980
H         -0.30130        1.73240        4.10720
H         -1.30310        0.43440        6.01200
P         -2.39100       -3.55650        1.42310
C         -4.00610       -4.40380        0.90470
C         -1.05850       -4.89390        1.76490
P          0.00000        0.00000        0.00000
N          1.62350        0.81870       -0.04220
N         -0.52720        0.46070       -1.67670
C         -2.94320       -2.78120        3.02930
H         -3.97680       -2.43610        2.85010
H         -2.98180       -3.49570        3.86430
C         -0.40150        1.08720        1.46270
H         -1.23170        1.73270        1.12520
H          0.42620        1.74880        1.75590
C         -1.02390       -2.67380       -1.23220
O         -0.88700       -3.18150       -2.26480
H          0.14390       -2.54720        1.07130
C         -4.73410       -5.22360        1.99930
C         -4.98870       -3.28770        0.45230
C         -3.77770       -5.26550       -0.35780
H         -4.96030       -4.60080        2.88720
H         -5.70700       -5.59050        1.60510
H         -4.21070       -6.12480        2.33470
H         -4.53610       -2.66820       -0.35170
H         -5.92610       -3.72670        0.04580
H         -5.30590       -2.60880        1.26280
H         -3.31680       -4.65700       -1.16630
H         -3.13580       -6.13920       -0.18670
H         -4.74300       -5.66330       -0.73960
C         -0.07000       -4.43780        2.88570
C         -1.66270       -6.19100        2.34810
C         -0.27800       -5.27990        0.49060
H         -0.62420       -4.24320        3.82820
H          0.66580       -5.24430        3.09920
H          0.54720       -3.54990        2.71590
H         -2.29490       -6.73280        1.63230
H         -0.86290       -6.92110        2.60290
H         -2.21980       -5.98170        3.28580
H         -0.95360       -5.63920       -0.30820
H          0.31730       -4.44390        0.08910
H          0.44820       -6.09220        0.71050
C         -1.94750        0.84080       -1.97980
C         -2.66480        1.66630       -0.90530
C         -1.99250        1.68800       -3.27410
C          0.00690       -0.41440       -2.74710
H         -2.55910       -0.07340       -2.14630
H         -2.11050        2.60650       -0.69560
H         -2.84310        1.07220        0.00710
H         -3.68170        1.94580       -1.25520
H         -1.58370        1.14030       -4.14570
H         -3.03920        1.96000       -3.53040
H         -1.41100        2.62570       -3.14400
H          0.52370        0.20570       -3.50860
H          0.71550       -1.17630       -2.36910
H         -0.79590       -0.95470       -3.29180
C          2.36440        1.01860       -1.33340
C          1.88740        2.31230       -2.02090
C          3.90320        1.16290       -1.17980
C          2.44050        0.09820        0.96530
H          2.27190        0.14460       -1.98130
H          2.10470        3.18750       -1.37250
H          2.41590        2.44800       -2.98930
H          0.80980        2.33080       -2.23690
H          4.36230        0.23710       -0.77230
H          4.37490        1.31800       -2.17430
H          4.16340        2.02410       -0.52840
H          2.74770       -0.90000        0.58130
H          1.89750       -0.06410        1.92050
H          3.32860        0.69400        1.25990
