66
RuPNP_tBu_NMe2
Ru        -1.24900       -1.86270        0.41180
H         -2.67160       -1.10340       -0.11020
N         -1.50290       -0.90480        2.37540
C         -2.11790       -1.57020        3.38060
C         -0.90340        0.28150        2.63250
C         -2.05470       -1.11440        4.70020
C         -0.81060        0.78320        3.93330
C         -1.37570        0.06740        4.98570
H         -2.54360       -1.68740        5.48980
H         -0.30130        1.73240        4.10720
H         -1.30310        0.43440        6.01200
P         -2.39100       -3.55650        1.42310
C         -3.98970       -4.44870        0.93220
C         -1.03780       -4.86640        1.80490
P          0.00000        0.00000        0.00000
N          1.46790        0.91440       -0.48450
N         -0.80190        0.17760       -1.58870
C         -2.94320       -2.78120        3.02930
H         -3.97680       -2.43610        2.85010
H         -2.98180       -3.49570        3.86430
C         -0.40150        1.08720        1.46270
H         -1.23170        1.73270        1.12520
H          0.42620        1.74880        1.75590
C         -1.02390       -2.67380       -1.23220
O         -0.88700       -3.18150       -2.26480
H          0.14390       -2.54720        1.07130
C         -4.70360       -5.25380        2.04750
C         -4.99020       -3.35990        0.45750
C         -3.74790       -5.33740       -0.30890
H         -4.94260       -4.61310        2.91950
H         -5.66950       -5.64770        1.66290
H         -4.16730       -6.13750        2.40730
H         -4.54950       -2.75350       -0.36320
H         -5.92270       -3.82310        0.06670
H         -5.30920       -2.66740        1.25620
H         -3.29730       -4.74320       -1.13310
H         -3.09190       -6.19590       -0.11600
H         -4.70670       -5.76240       -0.67820
C         -0.05980       -4.37280        2.92270
C         -1.62310       -6.15830        2.41860
C         -0.24920       -5.27400        0.54210
H         -0.62060       -4.16900        3.85980
H          0.68580       -5.16440        3.15600
H          0.54850       -3.48010        2.74830
H         -2.24390       -6.72890        1.71680
H         -0.81270       -6.86910        2.69490
H         -2.18520       -5.93480        3.35090
H         -0.91830       -5.66950       -0.24540
H          0.32930       -4.44060        0.11180
H          0.49140       -6.06600        0.78540
C         -1.83120        1.22250       -1.63470
C          0.08780        0.17990       -2.75880
H         -1.40220        2.23840       -1.62340
H         -2.42530        1.12010       -2.56750
H         -2.53470        1.11600       -0.78410
H          0.61760        1.14880       -2.86540
H          0.82500       -0.64750       -2.68330
H         -0.50830        0.01470       -3.68120
C          1.44240        2.38920       -0.51560
C          2.62630        0.41670        0.26730
H          0.49560        2.78080       -0.90840
H          1.65560        2.84850        0.47030
H          2.24680        2.74170       -1.19520
H          2.53060        0.65090        1.34940
H          2.71270       -0.68590        0.14620
H          3.56320        0.86680       -0.12200
