50
RuPNP_tBu_F
Ru        -1.24900       -1.86270        0.41180
H         -2.67160       -1.10340       -0.11020
N         -1.50290       -0.90480        2.37540
C         -2.11790       -1.57020        3.38060
C         -0.90340        0.28150        2.63250
C         -2.05470       -1.11440        4.70020
C         -0.81060        0.78320        3.93330
C         -1.37570        0.06740        4.98570
H         -2.54360       -1.68740        5.48980
H         -0.30130        1.73240        4.10720
H         -1.30310        0.43440        6.01200
P         -2.39100       -3.55650        1.42310
C         -4.10190       -4.28120        0.95650
C         -1.09100       -4.97070        1.75150
P          0.00000        0.00000        0.00000
F          1.00100        1.22740       -0.54650
F         -0.87970        0.21360       -1.40900
C         -2.94320       -2.78120        3.02930
H         -3.97680       -2.43610        2.85010
H         -2.98180       -3.49570        3.86430
C         -0.40150        1.08720        1.46270
H         -1.23170        1.73270        1.12520
H          0.42620        1.74880        1.75590
C         -1.02390       -2.67380       -1.23220
O         -0.88700       -3.18150       -2.26480
H          0.14390       -2.54720        1.07130
C         -4.91250       -4.95970        2.09970
C         -4.95470       -3.09990        0.43240
C         -4.03190       -5.24750       -0.25230
H         -5.12750       -4.27370        2.93600
H         -5.90050       -5.29200        1.70980
H         -4.44260       -5.85590        2.52150
H         -4.45630       -2.61720       -0.44360
H         -5.95560       -3.44120        0.08550
H         -5.15640       -2.30180        1.16650
H         -3.41810       -4.81800       -1.07150
H         -3.68320       -6.24670        0.00680
H         -5.04920       -5.44350       -0.65440
C         -0.49850       -4.75610        3.15860
C         -1.68750       -6.39970        1.77030
C          0.07880       -5.08660        0.73070
H         -1.28220       -4.85890        3.93960
H          0.27130       -5.52560        3.39560
H         -0.02850       -3.75700        3.25120
H         -1.90630       -6.75840        0.75290
H         -0.92950       -7.13580        2.11990
H         -2.52150       -6.52050        2.46520
H         -0.29920       -5.16500       -0.30970
H          0.87270       -4.33450        0.80020
H          0.67760       -6.00690        0.93500
